18
O          1.807106422593         -2.000154659195         -1.441891938897
C          0.533593386932         -1.713739212417         -1.252310118441
C          0.201859877194         -0.525232290055         -0.667917509464
C          1.122450614779          0.523420960368         -0.316940124465
C          0.386416292768          1.353002740233          0.591827124923
C         -0.859067459994          0.801745613818          0.729200612553
C         -2.051395246869          1.220175357140          1.530323328191
O         -3.209470113746          1.425061874697          0.717946964650
O         -1.021581956379         -0.318727214442         -0.018636598770
H         -0.197750681879         -2.472897066447         -1.523697326508
H          1.867412662816          0.906041032057         -1.000420447050
H          0.718325693126          2.276178162830          1.045694405914
H         -1.836786124804          2.171572447354          2.020558268877
H         -2.246550131819          0.467890859940          2.308173151142
H         -3.503493531202          0.565922650533          0.372465460374
O          2.686870812732         -0.516128810218          0.377292825798
H          2.351151715136         -1.405298884316         -0.701788249043
H          2.367574662344         -0.926447369540          1.200815512649